<?xml version="1.0" ?>
<routes>
    <vehicle id="veh_8_0_0" depart="0.052121352869925586" route="r_8"/>
    <vehicle id="veh_8_3_1" depart="3.5369695215969887" route="r_8"/>
    <vehicle id="veh_8_3_0" depart="3.540642963571806" route="r_8"/>
    <vehicle id="veh_6_3_0" depart="3.7639731510404584" route="r_6"/>
    <vehicle id="veh_11_5_0" depart="5.141337399769234" route="r_11"/>
    <vehicle id="veh_7_6_0" depart="6.653852819110746" route="r_7"/>
    <vehicle id="veh_6_6_0" depart="6.991922229539336" route="r_6"/>
    <vehicle id="veh_6_8_0" depart="8.201758406938703" route="r_6"/>
    <vehicle id="veh_8_8_0" depart="8.410383127983964" route="r_8"/>
    <vehicle id="veh_11_9_0" depart="9.423904212628388" route="r_11"/>
    <vehicle id="veh_9_12_0" depart="12.61332979877236" route="r_9"/>
    <vehicle id="veh_10_12_0" depart="12.755653596995195" route="r_10"/>
    <vehicle id="veh_6_21_0" depart="21.733027673115597" route="r_6"/>
    <vehicle id="veh_7_21_0" depart="21.75275438825477" route="r_7"/>
    <vehicle id="veh_9_23_0" depart="23.069538242939124" route="r_9"/>
    <vehicle id="veh_8_25_0" depart="25.630358268204915" route="r_8"/>
    <vehicle id="veh_11_28_0" depart="28.507758451486435" route="r_11"/>
    <vehicle id="veh_9_33_0" depart="33.84999839450768" route="r_9"/>
    <vehicle id="veh_10_34_0" depart="34.81202237384591" route="r_10"/>
    <vehicle id="veh_10_36_0" depart="36.12438090019665" route="r_10"/>
    <vehicle id="veh_8_37_0" depart="37.870673603064546" route="r_8"/>
    <vehicle id="veh_11_40_0" depart="40.9275645948599" route="r_11"/>
    <vehicle id="veh_8_40_0" depart="40.93054479975168" route="r_8"/>
    <vehicle id="veh_7_43_0" depart="43.93976070655089" route="r_7"/>
    <vehicle id="veh_10_44_0" depart="44.47250837414182" route="r_10"/>
    <vehicle id="veh_7_49_0" depart="49.8620578023744" route="r_7"/>
    <vehicle id="veh_8_52_0" depart="52.597197156994824" route="r_8"/>
    <vehicle id="veh_10_54_0" depart="54.85027238169863" route="r_10"/>
    <vehicle id="veh_6_54_0" depart="54.99122091292881" route="r_6"/>
    <vehicle id="veh_10_55_0" depart="55.9861892173714" route="r_10"/>
    <vehicle id="veh_9_56_0" depart="56.85023276246955" route="r_9"/>
    <vehicle id="veh_8_57_0" depart="57.95108309389857" route="r_8"/>
    <vehicle id="veh_8_58_0" depart="58.78525425364922" route="r_8"/>
    <vehicle id="veh_7_60_0" depart="60.31629463645387" route="r_7"/>
    <vehicle id="veh_10_61_1" depart="61.026502434033695" route="r_10"/>
    <vehicle id="veh_7_61_0" depart="61.422562509974895" route="r_7"/>
    <vehicle id="veh_10_61_0" depart="61.99157321743573" route="r_10"/>
    <vehicle id="veh_11_65_0" depart="65.28355480076472" route="r_11"/>
    <vehicle id="veh_7_66_0" depart="66.64814905079679" route="r_7"/>
    <vehicle id="veh_11_67_0" depart="67.39149945086297" route="r_11"/>
    <vehicle id="veh_8_67_0" depart="67.65194911244981" route="r_8"/>
    <vehicle id="veh_7_71_0" depart="71.22685368154683" route="r_7"/>
    <vehicle id="veh_6_72_0" depart="72.62399510942346" route="r_6"/>
    <vehicle id="veh_9_72_0" depart="72.68500490810139" route="r_9"/>
    <vehicle id="veh_10_72_0" depart="72.81145124406856" route="r_10"/>
    <vehicle id="veh_7_74_0" depart="74.33923369619596" route="r_7"/>
    <vehicle id="veh_8_75_0" depart="75.44049015246547" route="r_8"/>
    <vehicle id="veh_6_75_0" depart="75.46802923671115" route="r_6"/>
    <vehicle id="veh_11_77_0" depart="77.94855306439851" route="r_11"/>
    <vehicle id="veh_9_79_0" depart="79.31279667606432" route="r_9"/>
    <vehicle id="veh_7_79_0" depart="79.53949903855403" route="r_7"/>
    <vehicle id="veh_6_80_0" depart="80.18768862358083" route="r_6"/>
    <vehicle id="veh_9_83_0" depart="83.81159700499568" route="r_9"/>
    <vehicle id="veh_11_84_0" depart="84.81036044506365" route="r_11"/>
    <vehicle id="veh_9_84_0" depart="84.91462671290932" route="r_9"/>
    <vehicle id="veh_10_85_0" depart="85.2591199761591" route="r_10"/>
    <vehicle id="veh_10_85_1" depart="85.77126347896287" route="r_10"/>
    <vehicle id="veh_8_86_0" depart="86.23561534525018" route="r_8"/>
    <vehicle id="veh_1_86_0" depart="86.57928365985823" route="r_1"/>
    <vehicle id="veh_8_88_0" depart="88.03162459382536" route="r_8"/>
    <vehicle id="veh_10_88_0" depart="88.09339194168706" route="r_10"/>
    <vehicle id="veh_10_89_0" depart="89.04153083567734" route="r_10"/>
    <vehicle id="veh_8_91_0" depart="91.38126570852415" route="r_8"/>
    <vehicle id="veh_11_93_0" depart="93.01634646005238" route="r_11"/>
    <vehicle id="veh_8_96_0" depart="96.90067497373953" route="r_8"/>
    <vehicle id="veh_10_97_1" depart="97.38668396635533" route="r_10"/>
    <vehicle id="veh_10_97_0" depart="97.53441131055138" route="r_10"/>
    <vehicle id="veh_9_97_0" depart="97.90179689067094" route="r_9"/>
    <vehicle id="veh_11_99_0" depart="99.64690873456887" route="r_11"/>
    <vehicle id="veh_9_101_0" depart="101.40500377744104" route="r_9"/>
    <vehicle id="veh_9_102_0" depart="102.04704103764833" route="r_9"/>
    <vehicle id="veh_10_103_0" depart="103.93217115239634" route="r_10"/>
    <vehicle id="veh_11_104_0" depart="104.36087922676644" route="r_11"/>
    <vehicle id="veh_6_104_0" depart="104.82423012371859" route="r_6"/>
    <vehicle id="veh_10_106_0" depart="106.9656757453621" route="r_10"/>
    <vehicle id="veh_10_107_0" depart="107.04012111463965" route="r_10"/>
    <vehicle id="veh_11_108_0" depart="108.07528082296075" route="r_11"/>
    <vehicle id="veh_8_108_0" depart="108.55015138143864" route="r_8"/>
    <vehicle id="veh_6_108_0" depart="108.77296631523045" route="r_6"/>
    <vehicle id="veh_7_111_0" depart="111.362763583115" route="r_7"/>
    <vehicle id="veh_10_112_0" depart="112.64888939359699" route="r_10"/>
    <vehicle id="veh_10_113_0" depart="113.37734160349906" route="r_10"/>
    <vehicle id="veh_7_114_0" depart="114.35573005368154" route="r_7"/>
    <vehicle id="veh_10_114_0" depart="114.86699241380592" route="r_10"/>
    <vehicle id="veh_6_116_0" depart="116.18766684132888" route="r_6"/>
    <vehicle id="veh_10_116_0" depart="116.44512301023488" route="r_10"/>
    <vehicle id="veh_11_116_0" depart="116.68654283426814" route="r_11"/>
    <vehicle id="veh_9_117_0" depart="117.30458863890861" route="r_9"/>
    <vehicle id="veh_11_119_0" depart="119.210001515066" route="r_11"/>
    <vehicle id="veh_8_122_0" depart="122.14848548277993" route="r_8"/>
    <vehicle id="veh_10_122_0" depart="122.86542892792096" route="r_10"/>
    <vehicle id="veh_9_126_0" depart="126.55648976597307" route="r_9"/>
    <vehicle id="veh_10_126_0" depart="126.9543359654466" route="r_10"/>
    <vehicle id="veh_11_127_0" depart="127.95356088936033" route="r_11"/>
    <vehicle id="veh_5_134_0" depart="134.1045335204139" route="r_5"/>
    <vehicle id="veh_11_137_0" depart="137.08976396487074" route="r_11"/>
    <vehicle id="veh_8_138_0" depart="138.29488256147275" route="r_8"/>
    <vehicle id="veh_9_138_0" depart="138.72069462187667" route="r_9"/>
    <vehicle id="veh_11_138_0" depart="138.82664412302756" route="r_11"/>
    <vehicle id="veh_7_138_0" depart="138.87655238065815" route="r_7"/>
    <vehicle id="veh_10_139_0" depart="139.54160247597332" route="r_10"/>
    <vehicle id="veh_7_139_0" depart="139.89340984685006" route="r_7"/>
    <vehicle id="veh_6_140_0" depart="140.52188782223246" route="r_6"/>
    <vehicle id="veh_11_141_0" depart="141.72243638367337" route="r_11"/>
    <vehicle id="veh_7_142_0" depart="142.38219290469263" route="r_7"/>
    <vehicle id="veh_8_144_0" depart="144.6426785812885" route="r_8"/>
    <vehicle id="veh_9_144_0" depart="144.74662171943794" route="r_9"/>
    <vehicle id="veh_10_147_0" depart="147.67226172686088" route="r_10"/>
    <vehicle id="veh_6_148_0" depart="148.31831394739558" route="r_6"/>
    <vehicle id="veh_7_148_0" depart="148.65809601610187" route="r_7"/>
    <vehicle id="veh_7_149_0" depart="149.51771542635316" route="r_7"/>
    <vehicle id="veh_6_150_0" depart="150.9865321143107" route="r_6"/>
    <vehicle id="veh_9_153_1" depart="153.02240005087083" route="r_9"/>
    <vehicle id="veh_9_153_0" depart="153.795977566909" route="r_9"/>
    <vehicle id="veh_7_154_0" depart="154.4830312650314" route="r_7"/>
    <vehicle id="veh_10_154_0" depart="154.65524609951385" route="r_10"/>
    <vehicle id="veh_8_155_0" depart="155.4900595994127" route="r_8"/>
    <vehicle id="veh_11_156_0" depart="156.21639117413187" route="r_11"/>
    <vehicle id="veh_11_157_0" depart="157.42509375076747" route="r_11"/>
    <vehicle id="veh_8_157_0" depart="157.9415912088429" route="r_8"/>
    <vehicle id="veh_7_158_0" depart="158.8055417772091" route="r_7"/>
    <vehicle id="veh_8_164_0" depart="164.42272066290593" route="r_8"/>
    <vehicle id="veh_9_165_0" depart="165.23930445909673" route="r_9"/>
    <vehicle id="veh_8_165_0" depart="165.44953070449012" route="r_8"/>
    <vehicle id="veh_8_166_1" depart="166.279549210335" route="r_8"/>
    <vehicle id="veh_6_166_0" depart="166.7705285480753" route="r_6"/>
    <vehicle id="veh_8_166_0" depart="166.84249691177956" route="r_8"/>
    <vehicle id="veh_10_170_0" depart="170.0832466874625" route="r_10"/>
    <vehicle id="veh_11_170_0" depart="170.1550931983553" route="r_11"/>
    <vehicle id="veh_10_172_0" depart="172.06291206136612" route="r_10"/>
    <vehicle id="veh_10_176_0" depart="176.4154306437192" route="r_10"/>
    <vehicle id="veh_10_176_1" depart="176.90551997366305" route="r_10"/>
    <vehicle id="veh_11_179_0" depart="179.40556344688886" route="r_11"/>
    <vehicle id="veh_7_179_0" depart="179.42878714306727" route="r_7"/>
    <vehicle id="veh_11_180_0" depart="180.78382186112876" route="r_11"/>
    <vehicle id="veh_10_181_0" depart="181.26091259899425" route="r_10"/>
    <vehicle id="veh_8_181_0" depart="181.27230003971894" route="r_8"/>
    <vehicle id="veh_7_182_0" depart="182.89418014381522" route="r_7"/>
    <vehicle id="veh_8_183_0" depart="183.7023352440046" route="r_8"/>
    <vehicle id="veh_10_185_0" depart="185.6752190956105" route="r_10"/>
    <vehicle id="veh_2_187_0" depart="187.02162825358477" route="r_2"/>
    <vehicle id="veh_8_188_0" depart="188.0725771873145" route="r_8"/>
    <vehicle id="veh_10_188_0" depart="188.24079490134955" route="r_10"/>
    <vehicle id="veh_10_188_1" depart="188.4601796959209" route="r_10"/>
    <vehicle id="veh_6_190_0" depart="190.4126284107966" route="r_6"/>
    <vehicle id="veh_8_191_0" depart="191.8183530063682" route="r_8"/>
    <vehicle id="veh_10_192_0" depart="192.96336366954662" route="r_10"/>
    <vehicle id="veh_10_195_0" depart="195.53143197603112" route="r_10"/>
    <vehicle id="veh_10_197_0" depart="197.6467684883862" route="r_10"/>
    <vehicle id="veh_9_197_0" depart="197.68254907894806" route="r_9"/>
    <vehicle id="veh_11_197_0" depart="197.7362161312336" route="r_11"/>
    <vehicle id="veh_11_198_0" depart="198.44245688689583" route="r_11"/>
    <vehicle id="veh_10_198_0" depart="198.58158486003146" route="r_10"/>
    <vehicle id="veh_8_200_0" depart="200.28113906838163" route="r_8"/>
    <vehicle id="veh_5_200_0" depart="200.8364436125451" route="r_5"/>
    <vehicle id="veh_10_200_0" depart="200.88235769733723" route="r_10"/>
    <vehicle id="veh_10_201_0" depart="201.30407648132004" route="r_10"/>
    <vehicle id="veh_7_202_0" depart="202.1836164316319" route="r_7"/>
    <vehicle id="veh_11_203_0" depart="203.31170012048045" route="r_11"/>
    <vehicle id="veh_6_203_0" depart="203.92690264852388" route="r_6"/>
    <vehicle id="veh_9_205_0" depart="205.42871414701762" route="r_9"/>
    <vehicle id="veh_7_205_0" depart="205.7605951013385" route="r_7"/>
    <vehicle id="veh_7_206_0" depart="206.4518392606178" route="r_7"/>
    <vehicle id="veh_11_208_0" depart="208.75918708242773" route="r_11"/>
    <vehicle id="veh_7_209_0" depart="209.62724127430437" route="r_7"/>
    <vehicle id="veh_8_209_0" depart="209.95372985151195" route="r_8"/>
    <vehicle id="veh_9_211_0" depart="211.21834102993995" route="r_9"/>
    <vehicle id="veh_7_213_0" depart="213.55637016149154" route="r_7"/>
    <vehicle id="veh_10_214_0" depart="214.38673010340622" route="r_10"/>
    <vehicle id="veh_6_217_0" depart="217.63779334025494" route="r_6"/>
    <vehicle id="veh_1_217_0" depart="217.93043902738626" route="r_1"/>
    <vehicle id="veh_7_217_0" depart="217.97206254438817" route="r_7"/>
    <vehicle id="veh_10_219_0" depart="219.98029332296295" route="r_10"/>
    <vehicle id="veh_10_221_0" depart="221.3373875404616" route="r_10"/>
    <vehicle id="veh_8_221_0" depart="221.78236627077277" route="r_8"/>
    <vehicle id="veh_7_224_0" depart="224.47858589613102" route="r_7"/>
    <vehicle id="veh_10_225_0" depart="225.1510231819725" route="r_10"/>
    <vehicle id="veh_5_225_0" depart="225.6421251745092" route="r_5"/>
    <vehicle id="veh_9_227_0" depart="227.11357055685804" route="r_9"/>
    <vehicle id="veh_7_228_0" depart="228.14681147445262" route="r_7"/>
    <vehicle id="veh_8_228_0" depart="228.51139169620714" route="r_8"/>
    <vehicle id="veh_11_233_0" depart="233.1495378223664" route="r_11"/>
    <vehicle id="veh_11_235_0" depart="235.3256730449866" route="r_11"/>
    <vehicle id="veh_10_235_0" depart="235.40255760958823" route="r_10"/>
    <vehicle id="veh_7_237_0" depart="237.4488177801637" route="r_7"/>
    <vehicle id="veh_8_237_0" depart="237.75985092756252" route="r_8"/>
    <vehicle id="veh_4_238_0" depart="238.5169651543191" route="r_4"/>
    <vehicle id="veh_7_238_0" depart="238.96580408473503" route="r_7"/>
    <vehicle id="veh_10_239_0" depart="239.14795234625842" route="r_10"/>
    <vehicle id="veh_7_240_0" depart="240.4544498642442" route="r_7"/>
    <vehicle id="veh_10_241_0" depart="241.37563613878928" route="r_10"/>
    <vehicle id="veh_7_242_0" depart="242.3270177730844" route="r_7"/>
    <vehicle id="veh_10_243_0" depart="243.36353248615302" route="r_10"/>
    <vehicle id="veh_8_243_0" depart="243.71186436111984" route="r_8"/>
    <vehicle id="veh_7_244_0" depart="244.34636987562106" route="r_7"/>
    <vehicle id="veh_10_245_0" depart="245.62252640114167" route="r_10"/>
    <vehicle id="veh_2_247_0" depart="247.5918354299468" route="r_2"/>
    <vehicle id="veh_10_248_0" depart="248.26119425851974" route="r_10"/>
    <vehicle id="veh_8_248_0" depart="248.57016153350895" route="r_8"/>
    <vehicle id="veh_3_250_0" depart="250.09510152764264" route="r_3"/>
    <vehicle id="veh_7_251_0" depart="251.5202451398761" route="r_7"/>
    <vehicle id="veh_8_251_0" depart="251.6757202896389" route="r_8"/>
    <vehicle id="veh_10_252_0" depart="252.73969892217832" route="r_10"/>
    <vehicle id="veh_7_254_0" depart="254.11260066761997" route="r_7"/>
    <vehicle id="veh_11_255_0" depart="255.3451152081398" route="r_11"/>
    <vehicle id="veh_1_256_0" depart="256.07773324135155" route="r_1"/>
    <vehicle id="veh_6_257_0" depart="257.001272594744" route="r_6"/>
    <vehicle id="veh_9_257_0" depart="257.20607042312554" route="r_9"/>
    <vehicle id="veh_9_257_1" depart="257.25673834707527" route="r_9"/>
    <vehicle id="veh_11_258_0" depart="258.29225583206374" route="r_11"/>
    <vehicle id="veh_10_258_0" depart="258.71967266399514" route="r_10"/>
    <vehicle id="veh_6_259_0" depart="259.096355151466" route="r_6"/>
    <vehicle id="veh_10_259_0" depart="259.3249875118097" route="r_10"/>
    <vehicle id="veh_6_261_0" depart="261.2407632600579" route="r_6"/>
    <vehicle id="veh_9_261_0" depart="261.37464549225217" route="r_9"/>
    <vehicle id="veh_10_261_0" depart="261.9875984555349" route="r_10"/>
    <vehicle id="veh_7_262_0" depart="262.52547573074224" route="r_7"/>
    <vehicle id="veh_11_262_0" depart="262.67474964840625" route="r_11"/>
    <vehicle id="veh_7_262_1" depart="262.7703624249957" route="r_7"/>
    <vehicle id="veh_8_264_0" depart="264.3389819694709" route="r_8"/>
    <vehicle id="veh_11_264_0" depart="264.5748586750689" route="r_11"/>
    <vehicle id="veh_8_266_0" depart="266.31496243771716" route="r_8"/>
    <vehicle id="veh_7_267_0" depart="267.77767855517897" route="r_7"/>
    <vehicle id="veh_8_270_0" depart="270.08377806883715" route="r_8"/>
    <vehicle id="veh_1_274_0" depart="274.12270360806264" route="r_1"/>
    <vehicle id="veh_11_276_0" depart="276.68522334730085" route="r_11"/>
    <vehicle id="veh_10_278_0" depart="278.5869270874476" route="r_10"/>
    <vehicle id="veh_7_278_0" depart="278.7669331577898" route="r_7"/>
    <vehicle id="veh_4_280_0" depart="280.92606324873304" route="r_4"/>
    <vehicle id="veh_10_281_0" depart="281.41151226207523" route="r_10"/>
    <vehicle id="veh_11_282_0" depart="282.6251870571465" route="r_11"/>
    <vehicle id="veh_7_283_0" depart="283.1163286591166" route="r_7"/>
    <vehicle id="veh_1_284_0" depart="284.10296268974207" route="r_1"/>
    <vehicle id="veh_7_285_0" depart="285.2200941471843" route="r_7"/>
    <vehicle id="veh_6_289_0" depart="289.7333612914778" route="r_6"/>
    <vehicle id="veh_7_298_0" depart="298.00639366219343" route="r_7"/>
    <vehicle id="veh_7_298_1" depart="298.8184284333745" route="r_7"/>
    <vehicle id="veh_5_300_0" depart="300.5178233382568" route="r_5"/>
    <vehicle id="veh_10_301_0" depart="301.00859044503216" route="r_10"/>
    <vehicle id="veh_6_301_0" depart="301.76074726698187" route="r_6"/>
    <vehicle id="veh_10_303_0" depart="303.8274670125178" route="r_10"/>
    <vehicle id="veh_7_304_0" depart="304.1687994334376" route="r_7"/>
    <vehicle id="veh_8_304_0" depart="304.2018351097296" route="r_8"/>
    <vehicle id="veh_6_304_0" depart="304.69239197650313" route="r_6"/>
    <vehicle id="veh_7_306_0" depart="306.0702081010021" route="r_7"/>
    <vehicle id="veh_3_306_0" depart="306.5333607371503" route="r_3"/>
    <vehicle id="veh_10_307_0" depart="307.6848509172211" route="r_10"/>
    <vehicle id="veh_11_307_0" depart="307.7229267254165" route="r_11"/>
    <vehicle id="veh_9_308_0" depart="308.9379729439279" route="r_9"/>
    <vehicle id="veh_7_309_0" depart="309.42692265940457" route="r_7"/>
    <vehicle id="veh_8_310_0" depart="310.54100275162426" route="r_8"/>
    <vehicle id="veh_7_311_0" depart="311.0500142952632" route="r_7"/>
    <vehicle id="veh_9_311_0" depart="311.5683371476936" route="r_9"/>
    <vehicle id="veh_11_311_0" depart="311.63448344190095" route="r_11"/>
    <vehicle id="veh_10_312_0" depart="312.51309298970006" route="r_10"/>
    <vehicle id="veh_11_313_0" depart="313.8173488777879" route="r_11"/>
    <vehicle id="veh_11_314_0" depart="314.4877232401776" route="r_11"/>
    <vehicle id="veh_10_319_0" depart="319.0584211001315" route="r_10"/>
    <vehicle id="veh_6_320_0" depart="320.7163872138959" route="r_6"/>
    <vehicle id="veh_7_321_0" depart="321.4941768206709" route="r_7"/>
    <vehicle id="veh_2_322_0" depart="322.0913723264322" route="r_2"/>
    <vehicle id="veh_6_322_0" depart="322.3077645520632" route="r_6"/>
    <vehicle id="veh_10_323_0" depart="323.0600698724818" route="r_10"/>
    <vehicle id="veh_11_323_0" depart="323.38443051519084" route="r_11"/>
    <vehicle id="veh_7_324_0" depart="324.3329328570675" route="r_7"/>
    <vehicle id="veh_1_324_0" depart="324.3524923705621" route="r_1"/>
    <vehicle id="veh_7_324_1" depart="324.44639584170545" route="r_7"/>
    <vehicle id="veh_11_325_0" depart="325.69440352920014" route="r_11"/>
    <vehicle id="veh_11_325_1" depart="325.6953842066981" route="r_11"/>
    <vehicle id="veh_10_326_0" depart="326.0730728094517" route="r_10"/>
    <vehicle id="veh_6_326_0" depart="326.5679392496668" route="r_6"/>
    <vehicle id="veh_10_327_0" depart="327.01837003117276" route="r_10"/>
    <vehicle id="veh_10_328_0" depart="328.60058516710956" route="r_10"/>
    <vehicle id="veh_6_328_0" depart="328.9139575880519" route="r_6"/>
    <vehicle id="veh_6_329_0" depart="329.33175921625576" route="r_6"/>
    <vehicle id="veh_7_329_0" depart="329.41555919804154" route="r_7"/>
    <vehicle id="veh_11_330_0" depart="330.2478013739206" route="r_11"/>
    <vehicle id="veh_7_333_0" depart="333.5692539138954" route="r_7"/>
    <vehicle id="veh_11_333_0" depart="333.5964390417476" route="r_11"/>
    <vehicle id="veh_8_335_0" depart="335.46908505020815" route="r_8"/>
    <vehicle id="veh_8_335_1" depart="335.97786682403205" route="r_8"/>
    <vehicle id="veh_7_337_0" depart="337.9039123784265" route="r_7"/>
    <vehicle id="veh_11_339_0" depart="339.60567193535053" route="r_11"/>
    <vehicle id="veh_7_340_1" depart="340.0884735798877" route="r_7"/>
    <vehicle id="veh_7_340_0" depart="340.8869914718219" route="r_7"/>
    <vehicle id="veh_8_341_0" depart="341.4610427549254" route="r_8"/>
    <vehicle id="veh_9_341_0" depart="341.56354732629313" route="r_9"/>
    <vehicle id="veh_10_342_0" depart="342.87840087930124" route="r_10"/>
    <vehicle id="veh_0_343_0" depart="343.0223682503424" route="r_0"/>
    <vehicle id="veh_9_343_0" depart="343.2177609385547" route="r_9"/>
    <vehicle id="veh_8_343_0" depart="343.3961521909754" route="r_8"/>
    <vehicle id="veh_4_344_0" depart="344.2078424309145" route="r_4"/>
    <vehicle id="veh_8_345_0" depart="345.4524242826951" route="r_8"/>
    <vehicle id="veh_10_345_0" depart="345.8750944123501" route="r_10"/>
    <vehicle id="veh_10_346_0" depart="346.2959056981067" route="r_10"/>
    <vehicle id="veh_7_347_0" depart="347.9168662146513" route="r_7"/>
    <vehicle id="veh_8_348_0" depart="348.2100490169224" route="r_8"/>
    <vehicle id="veh_6_348_0" depart="348.51598716512825" route="r_6"/>
    <vehicle id="veh_11_349_0" depart="349.0641063842763" route="r_11"/>
    <vehicle id="veh_10_350_0" depart="350.3982980651551" route="r_10"/>
    <vehicle id="veh_9_350_0" depart="350.5119908337471" route="r_9"/>
    <vehicle id="veh_7_351_0" depart="351.33443730358977" route="r_7"/>
    <vehicle id="veh_10_354_0" depart="354.47181005014625" route="r_10"/>
    <vehicle id="veh_6_355_0" depart="355.11449244655876" route="r_6"/>
    <vehicle id="veh_8_355_0" depart="355.54785513943654" route="r_8"/>
    <vehicle id="veh_7_356_0" depart="356.7114648474407" route="r_7"/>
    <vehicle id="veh_7_357_0" depart="357.09881506173133" route="r_7"/>
    <vehicle id="veh_10_357_0" depart="357.31267482065755" route="r_10"/>
    <vehicle id="veh_10_358_0" depart="358.45341620746103" route="r_10"/>
    <vehicle id="veh_8_358_0" depart="358.4796949859885" route="r_8"/>
    <vehicle id="veh_9_359_0" depart="359.2361335853753" route="r_9"/>
    <vehicle id="veh_8_360_0" depart="360.0717458932657" route="r_8"/>
    <vehicle id="veh_10_362_0" depart="362.58623457358425" route="r_10"/>
    <vehicle id="veh_8_364_0" depart="364.19785251444927" route="r_8"/>
    <vehicle id="veh_5_366_0" depart="366.7492545871729" route="r_5"/>
    <vehicle id="veh_7_368_0" depart="368.0252289667327" route="r_7"/>
    <vehicle id="veh_3_368_0" depart="368.89531837609525" route="r_3"/>
    <vehicle id="veh_10_369_0" depart="369.31147886786005" route="r_10"/>
    <vehicle id="veh_8_372_0" depart="372.2690406450605" route="r_8"/>
    <vehicle id="veh_10_372_0" depart="372.350206741535" route="r_10"/>
    <vehicle id="veh_7_372_0" depart="372.3632344734455" route="r_7"/>
    <vehicle id="veh_8_373_0" depart="373.0158767089384" route="r_8"/>
    <vehicle id="veh_10_373_0" depart="373.49918373840336" route="r_10"/>
    <vehicle id="veh_11_373_0" depart="373.8706274962444" route="r_11"/>
    <vehicle id="veh_7_375_0" depart="375.19450891437634" route="r_7"/>
    <vehicle id="veh_6_376_0" depart="376.75105964448437" route="r_6"/>
    <vehicle id="veh_1_376_0" depart="376.9558087321674" route="r_1"/>
    <vehicle id="veh_4_377_0" depart="377.3978146609464" route="r_4"/>
    <vehicle id="veh_7_380_0" depart="380.20098231446013" route="r_7"/>
    <vehicle id="veh_8_383_0" depart="383.8039192599545" route="r_8"/>
    <vehicle id="veh_7_384_0" depart="384.77689070336544" route="r_7"/>
    <vehicle id="veh_5_389_0" depart="389.3582458378342" route="r_5"/>
    <vehicle id="veh_7_390_0" depart="390.0000751246186" route="r_7"/>
    <vehicle id="veh_11_390_0" depart="390.3498736393479" route="r_11"/>
    <vehicle id="veh_7_391_0" depart="391.272497105643" route="r_7"/>
    <vehicle id="veh_6_392_0" depart="392.7387012363078" route="r_6"/>
    <vehicle id="veh_7_396_0" depart="396.45751593263316" route="r_7"/>
    <vehicle id="veh_10_400_0" depart="400.26301074698165" route="r_10"/>
    <vehicle id="veh_11_400_0" depart="400.46729933379885" route="r_11"/>
    <vehicle id="veh_10_400_1" depart="400.8606544881521" route="r_10"/>
    <vehicle id="veh_10_401_0" depart="401.08767953875684" route="r_10"/>
    <vehicle id="veh_11_401_0" depart="401.6160981972216" route="r_11"/>
    <vehicle id="veh_11_402_0" depart="402.26126057745574" route="r_11"/>
    <vehicle id="veh_10_402_0" depart="402.90329509755134" route="r_10"/>
    <vehicle id="veh_11_403_0" depart="403.4765302517938" route="r_11"/>
    <vehicle id="veh_8_404_0" depart="404.00354475604036" route="r_8"/>
    <vehicle id="veh_11_404_0" depart="404.3321581594444" route="r_11"/>
    <vehicle id="veh_10_405_0" depart="405.77102217941945" route="r_10"/>
    <vehicle id="veh_8_407_0" depart="407.18196794841066" route="r_8"/>
    <vehicle id="veh_7_407_0" depart="407.34429322288617" route="r_7"/>
    <vehicle id="veh_11_407_0" depart="407.4759713460676" route="r_11"/>
    <vehicle id="veh_10_408_0" depart="408.1859865945128" route="r_10"/>
    <vehicle id="veh_10_409_0" depart="409.6072068872253" route="r_10"/>
    <vehicle id="veh_7_411_0" depart="411.40304051315746" route="r_7"/>
    <vehicle id="veh_11_412_0" depart="412.9498264327137" route="r_11"/>
    <vehicle id="veh_10_413_0" depart="413.1086796112087" route="r_10"/>
    <vehicle id="veh_7_413_0" depart="413.23432151821106" route="r_7"/>
    <vehicle id="veh_7_413_1" depart="413.9805876715643" route="r_7"/>
    <vehicle id="veh_4_414_0" depart="414.04532108404044" route="r_4"/>
    <vehicle id="veh_10_414_0" depart="414.8283802867435" route="r_10"/>
    <vehicle id="veh_7_418_0" depart="418.8637654676896" route="r_7"/>
    <vehicle id="veh_7_419_0" depart="419.0531665689274" route="r_7"/>
    <vehicle id="veh_10_420_0" depart="420.3189142638897" route="r_10"/>
    <vehicle id="veh_5_420_0" depart="420.7673718169957" route="r_5"/>
    <vehicle id="veh_10_421_0" depart="421.43926947364315" route="r_10"/>
    <vehicle id="veh_7_423_0" depart="423.71960017845595" route="r_7"/>
    <vehicle id="veh_10_425_0" depart="425.46603564248403" route="r_10"/>
    <vehicle id="veh_9_425_0" depart="425.71394720541105" route="r_9"/>
    <vehicle id="veh_11_425_0" depart="425.8557545370595" route="r_11"/>
    <vehicle id="veh_7_425_0" depart="425.88525293240343" route="r_7"/>
    <vehicle id="veh_7_427_0" depart="427.7989429542919" route="r_7"/>
    <vehicle id="veh_10_429_0" depart="429.49698393078756" route="r_10"/>
    <vehicle id="veh_7_432_0" depart="432.4940755088078" route="r_7"/>
    <vehicle id="veh_7_432_1" depart="432.5624671166539" route="r_7"/>
    <vehicle id="veh_11_433_0" depart="433.84404673725265" route="r_11"/>
    <vehicle id="veh_3_433_0" depart="433.95734986301596" route="r_3"/>
    <vehicle id="veh_1_434_0" depart="434.1505973445228" route="r_1"/>
    <vehicle id="veh_7_434_0" depart="434.86342992296557" route="r_7"/>
    <vehicle id="veh_8_435_0" depart="435.2081461819787" route="r_8"/>
    <vehicle id="veh_11_435_0" depart="435.4941604999437" route="r_11"/>
    <vehicle id="veh_10_435_0" depart="435.55884065376006" route="r_10"/>
    <vehicle id="veh_11_435_1" depart="435.78999462527474" route="r_11"/>
    <vehicle id="veh_6_436_0" depart="436.4448914813568" route="r_6"/>
    <vehicle id="veh_11_437_0" depart="437.03635481700894" route="r_11"/>
    <vehicle id="veh_2_437_0" depart="437.18278380463045" route="r_2"/>
    <vehicle id="veh_7_437_0" depart="437.83725990762684" route="r_7"/>
    <vehicle id="veh_7_440_0" depart="440.52088386623217" route="r_7"/>
    <vehicle id="veh_1_442_0" depart="442.33795157715906" route="r_1"/>
    <vehicle id="veh_8_447_0" depart="447.6206693932403" route="r_8"/>
    <vehicle id="veh_10_447_0" depart="447.90584024100576" route="r_10"/>
    <vehicle id="veh_2_448_0" depart="448.8502824720979" route="r_2"/>
    <vehicle id="veh_5_450_0" depart="450.6983155423326" route="r_5"/>
    <vehicle id="veh_11_450_0" depart="450.96007911221955" route="r_11"/>
    <vehicle id="veh_10_452_0" depart="452.296408539369" route="r_10"/>
    <vehicle id="veh_10_454_0" depart="454.2290702002625" route="r_10"/>
    <vehicle id="veh_8_455_0" depart="455.57960978891623" route="r_8"/>
    <vehicle id="veh_1_457_0" depart="457.07298444293406" route="r_1"/>
    <vehicle id="veh_7_457_0" depart="457.71553690084585" route="r_7"/>
    <vehicle id="veh_10_460_0" depart="460.0158105090881" route="r_10"/>
    <vehicle id="veh_4_460_0" depart="460.9582010468664" route="r_4"/>
    <vehicle id="veh_11_461_0" depart="461.49417349388364" route="r_11"/>
    <vehicle id="veh_11_461_1" depart="461.5152188058912" route="r_11"/>
    <vehicle id="veh_8_461_0" depart="461.59691986345615" route="r_8"/>
    <vehicle id="veh_7_461_0" depart="461.84535755148323" route="r_7"/>
    <vehicle id="veh_8_462_0" depart="462.146911743175" route="r_8"/>
    <vehicle id="veh_7_462_0" depart="462.9401376135949" route="r_7"/>
    <vehicle id="veh_7_463_0" depart="463.35955579448535" route="r_7"/>
    <vehicle id="veh_1_463_0" depart="463.4159101735633" route="r_1"/>
    <vehicle id="veh_5_463_0" depart="463.9207014162791" route="r_5"/>
    <vehicle id="veh_11_465_0" depart="465.44386379086336" route="r_11"/>
    <vehicle id="veh_8_465_0" depart="465.5245382398785" route="r_8"/>
    <vehicle id="veh_7_466_0" depart="466.7675219478883" route="r_7"/>
    <vehicle id="veh_10_467_0" depart="467.621884698378" route="r_10"/>
    <vehicle id="veh_8_468_0" depart="468.3702730578238" route="r_8"/>
    <vehicle id="veh_11_468_0" depart="468.9325830935793" route="r_11"/>
    <vehicle id="veh_8_470_0" depart="470.16739600824036" route="r_8"/>