<?xml version="1.0" encoding="UTF-8"?>

<!-- generated on 2024-12-06 13:33:19 by Eclipse SUMO netedit Version 1.20.0
<configuration xmlns:xsi="http://www.w3.org/2001/XMLSchema-instance" xsi:noNamespaceSchemaLocation="http://sumo.dlr.de/xsd/neteditConfiguration.xsd">

    <input>
        <sumo-net-file value="/Users/liuqi/Desktop/signal/junction.net.xml"/>
    </input>

    <output>
        <output-file value="/Users/liuqi/Desktop/signal/junction.net.xml"/>
    </output>

    <processing>
        <geometry.min-radius.fix.railways value="false"/>
        <geometry.max-grade.fix value="false"/>
        <offset.disable-normalization value="true"/>
        <lefthand value="0"/>
    </processing>

    <junctions>
        <no-turnarounds value="true"/>
        <junctions.corner-detail value="5"/>
        <junctions.limit-turn-speed value="5.50"/>
        <rectangular-lane-cut value="0"/>
    </junctions>

    <pedestrian>
        <walkingareas value="0"/>
    </pedestrian>

</configuration>
-->

<net version="1.20" junctionCornerDetail="5" limitTurnSpeed="5.50" xmlns:xsi="http://www.w3.org/2001/XMLSchema-instance" xsi:noNamespaceSchemaLocation="http://sumo.dlr.de/xsd/net_file.xsd">

    <location netOffset="0.00,0.00" convBoundary="-400.00,-400.00,400.00,400.00" origBoundary="-10000000000.00,-10000000000.00,10000000000.00,10000000000.00" projParameter="!"/>

    <edge id=":J3_0" function="internal">
        <lane id=":J3_0_0" index="0" speed="6.51" length="9.03" shape="-8.00,13.60 -8.35,11.15 -9.40,9.40 -11.15,8.35 -13.60,8.00"/>
    </edge>
    <edge id=":J3_1" function="internal">
        <lane id=":J3_1_0" index="0" speed="13.89" length="27.20" shape="-8.00,13.60 -8.00,-13.60"/>
        <lane id=":J3_1_1" index="1" speed="13.89" length="27.20" shape="-4.80,13.60 -4.80,-13.60"/>
    </edge>
    <edge id=":J3_3" function="internal">
        <lane id=":J3_3_0" index="0" speed="10.36" length="24.51" shape="-1.60,13.60 -0.65,6.95 2.20,2.20 6.95,-0.65 13.60,-1.60"/>
    </edge>
    <edge id=":J3_4" function="internal">
        <lane id=":J3_4_0" index="0" speed="6.51" length="9.03" shape="13.60,8.00 11.15,8.35 9.40,9.40 8.35,11.15 8.00,13.60"/>
    </edge>
    <edge id=":J3_5" function="internal">
        <lane id=":J3_5_0" index="0" speed="13.89" length="27.20" shape="13.60,8.00 -13.60,8.00"/>
        <lane id=":J3_5_1" index="1" speed="13.89" length="27.20" shape="13.60,4.80 -13.60,4.80"/>
    </edge>
    <edge id=":J3_7" function="internal">
        <lane id=":J3_7_0" index="0" speed="10.36" length="24.51" shape="13.60,1.60 6.95,0.65 2.20,-2.20 -0.65,-6.95 -1.60,-13.60"/>
    </edge>
    <edge id=":J3_8" function="internal">
        <lane id=":J3_8_0" index="0" speed="6.51" length="9.03" shape="8.00,-13.60 8.35,-11.15 9.40,-9.40 11.15,-8.35 13.60,-8.00"/>
    </edge>
    <edge id=":J3_9" function="internal">
        <lane id=":J3_9_0" index="0" speed="13.89" length="27.20" shape="8.00,-13.60 8.00,13.60"/>
        <lane id=":J3_9_1" index="1" speed="13.89" length="27.20" shape="4.80,-13.60 4.80,13.60"/>
    </edge>
    <edge id=":J3_11" function="internal">
        <lane id=":J3_11_0" index="0" speed="10.36" length="24.51" shape="1.60,-13.60 0.65,-6.95 -2.20,-2.20 -6.95,0.65 -13.60,1.60"/>
    </edge>
    <edge id=":J3_12" function="internal">
        <lane id=":J3_12_0" index="0" speed="6.53" length="9.11" shape="-13.60,-7.90 -11.15,-8.26 -9.40,-9.33 -8.35,-11.11 -8.00,-13.60"/>
    </edge>
    <edge id=":J3_13" function="internal">
        <lane id=":J3_13_0" index="0" speed="13.89" length="27.20" shape="-13.60,-7.90 13.60,-8.00"/>
        <lane id=":J3_13_1" index="1" speed="13.89" length="27.20" shape="-13.60,-4.70 13.60,-4.80"/>
    </edge>
    <edge id=":J3_15" function="internal">
        <lane id=":J3_15_0" index="0" speed="10.35" length="24.43" shape="-13.60,-1.50 -6.95,-0.56 -2.20,2.27 0.65,6.99 1.60,13.60"/>
    </edge>

    <edge id="-E0" from="J3" to="J2" priority="-1" length="400.00">
        <lane id="-E0_0" index="0" speed="13.89" length="400.00" shape="-13.60,8.00 -400.00,8.00"/>
        <lane id="-E0_1" index="1" speed="13.89" length="400.00" shape="-13.60,4.80 -400.00,4.80"/>
        <lane id="-E0_2" index="2" speed="13.89" length="400.00" shape="-13.60,1.60 -400.00,1.60"/>
    </edge>
    <edge id="-E1" from="J3" to="J4" priority="-1" length="400.00">
        <lane id="-E1_0" index="0" speed="13.89" length="400.00" shape="13.60,-8.00 400.00,-8.00"/>
        <lane id="-E1_1" index="1" speed="13.89" length="400.00" shape="13.60,-4.80 400.00,-4.80"/>
        <lane id="-E1_2" index="2" speed="13.89" length="400.00" shape="13.60,-1.60 400.00,-1.60"/>
    </edge>
    <edge id="-E2" from="J3" to="J5" priority="-1" length="400.00">
        <lane id="-E2_0" index="0" speed="13.89" length="400.00" shape="-8.00,-13.60 -8.00,-400.00"/>
        <lane id="-E2_1" index="1" speed="13.89" length="400.00" shape="-4.80,-13.60 -4.80,-400.00"/>
        <lane id="-E2_2" index="2" speed="13.89" length="400.00" shape="-1.60,-13.60 -1.60,-400.00"/>
    </edge>
    <edge id="-E3" from="J3" to="J6" priority="-1" length="400.00">
        <lane id="-E3_0" index="0" speed="13.89" length="400.00" shape="8.00,13.60 8.00,400.00"/>
        <lane id="-E3_1" index="1" speed="13.89" length="400.00" shape="4.80,13.60 4.80,400.00"/>
        <lane id="-E3_2" index="2" speed="13.89" length="400.00" shape="1.60,13.60 1.60,400.00"/>
    </edge>
    <edge id="E0" from="J2" to="J3" priority="-1" length="400.00" shape="-400.00,0.00 0.10,0.10">
        <lane id="E0_0" index="0" speed="13.89" length="400.00" shape="-400.00,-8.00 -13.60,-7.90"/>
        <lane id="E0_1" index="1" speed="13.89" length="400.00" shape="-400.00,-4.80 -13.60,-4.70"/>
        <lane id="E0_2" index="2" speed="13.89" length="400.00" shape="-400.00,-1.60 -13.60,-1.50"/>
    </edge>
    <edge id="E1" from="J4" to="J3" priority="-1" length="400.00">
        <lane id="E1_0" index="0" speed="13.89" length="400.00" shape="400.00,8.00 13.60,8.00"/>
        <lane id="E1_1" index="1" speed="13.89" length="400.00" shape="400.00,4.80 13.60,4.80"/>
        <lane id="E1_2" index="2" speed="13.89" length="400.00" shape="400.00,1.60 13.60,1.60"/>
    </edge>
    <edge id="E2" from="J5" to="J3" priority="-1" length="400.00">
        <lane id="E2_0" index="0" speed="13.89" length="400.00" shape="8.00,-400.00 8.00,-13.60"/>
        <lane id="E2_1" index="1" speed="13.89" length="400.00" shape="4.80,-400.00 4.80,-13.60"/>
        <lane id="E2_2" index="2" speed="13.89" length="400.00" shape="1.60,-400.00 1.60,-13.60"/>
    </edge>
    <edge id="E3" from="J6" to="J3" priority="-1" length="400.00">
        <lane id="E3_0" index="0" speed="13.89" length="400.00" shape="-8.00,400.00 -8.00,13.60"/>
        <lane id="E3_1" index="1" speed="13.89" length="400.00" shape="-4.80,400.00 -4.80,13.60"/>
        <lane id="E3_2" index="2" speed="13.89" length="400.00" shape="-1.60,400.00 -1.60,13.60"/>
    </edge>

    <tlLogic id="J3" type="static" programID="0" offset="0">
        <phase duration="33" state="GGGrrrrrGGGrrrrr"/>
        <phase duration="3"  state="yyyrrrrryyyrrrrr"/>
        <phase duration="6"  state="rrrGrrrrrrrGrrrr"/>
        <phase duration="3"  state="rrryrrrrrrryrrrr"/>
        <phase duration="33" state="rrrrGGGrrrrrGGGr"/>
        <phase duration="3"  state="rrrryyyrrrrryyyr"/>
        <phase duration="6"  state="rrrrrrrGrrrrrrrG"/>
        <phase duration="3"  state="rrrrrrryrrrrrrry"/>
    </tlLogic>

    <junction id="J2" type="dead_end" x="-400.00" y="0.00" incLanes="-E0_0 -E0_1 -E0_2" intLanes="" shape="-400.00,0.00 -400.00,-9.60 -400.00,9.60"/>
    <junction id="J3" type="traffic_light" x="0.00" y="0.00" incLanes="E3_0 E3_1 E3_2 E1_0 E1_1 E1_2 E2_0 E2_1 E2_2 E0_0 E0_1 E0_2" intLanes=":J3_0_0 :J3_1_0 :J3_1_1 :J3_3_0 :J3_4_0 :J3_5_0 :J3_5_1 :J3_7_0 :J3_8_0 :J3_9_0 :J3_9_1 :J3_11_0 :J3_12_0 :J3_13_0 :J3_13_1 :J3_15_0" shape="-9.60,13.60 9.60,13.60 10.04,11.38 10.60,10.60 11.38,10.04 12.38,9.71 13.60,9.60 13.60,-9.60 11.38,-10.04 10.60,-10.60 10.04,-11.38 9.71,-12.38 9.60,-13.60 -9.60,-13.60 -10.04,-11.32 -10.60,-10.53 -11.38,-9.96 -12.38,-9.62 -13.60,-9.50 -13.60,9.60 -11.38,10.04 -10.60,10.60 -10.04,11.38 -9.71,12.38">
        <request index="0"  response="0000000000000000" foes="0000000001100000" cont="0"/>
        <request index="1"  response="0000000000000000" foes="1111100001100000" cont="0"/>
        <request index="2"  response="0000000000000000" foes="1111100001100000" cont="0"/>
        <request index="3"  response="0000011000000000" foes="1000011011100000" cont="0"/>
        <request index="4"  response="0000011000000000" foes="0000011000000000" cont="0"/>
        <request index="5"  response="0000011000001111" foes="1000011000001111" cont="0"/>
        <request index="6"  response="0000011000001111" foes="1000011000001111" cont="0"/>
        <request index="7"  response="0110111000001000" foes="0110111000001000" cont="0"/>
        <request index="8"  response="0000000000000000" foes="0110000000000000" cont="0"/>
        <request index="9"  response="0000000000000000" foes="0110000011111000" cont="0"/>
        <request index="10" response="0000000000000000" foes="0110000011111000" cont="0"/>
        <request index="11" response="0000000000000110" foes="1110000010000110" cont="0"/>
        <request index="12" response="0000000000000110" foes="0000000000000110" cont="0"/>
        <request index="13" response="0000111100000110" foes="0000111110000110" cont="0"/>
        <request index="14" response="0000111100000110" foes="0000111110000110" cont="0"/>
        <request index="15" response="0000100001101110" foes="0000100001101110" cont="0"/>
    </junction>
    <junction id="J4" type="dead_end" x="400.00" y="0.00" incLanes="-E1_0 -E1_1 -E1_2" intLanes="" shape="400.00,0.00 400.00,-9.60 400.00,0.00"/>
    <junction id="J5" type="dead_end" x="0.00" y="-400.00" incLanes="-E2_0 -E2_1 -E2_2" intLanes="" shape="0.00,-400.00 -9.60,-400.00 0.00,-400.00"/>
    <junction id="J6" type="dead_end" x="0.00" y="400.00" incLanes="-E3_0 -E3_1 -E3_2" intLanes="" shape="0.00,400.00 9.60,400.00 0.00,400.00"/>

    <connection from="E0" to="-E2" fromLane="0" toLane="0" via=":J3_12_0" tl="J3" linkIndex="12" dir="r" state="o"/>
    <connection from="E0" to="-E1" fromLane="0" toLane="0" via=":J3_13_0" tl="J3" linkIndex="13" dir="s" state="o"/>
    <connection from="E0" to="-E1" fromLane="1" toLane="1" via=":J3_13_1" tl="J3" linkIndex="14" dir="s" state="o"/>
    <connection from="E0" to="-E3" fromLane="2" toLane="2" via=":J3_15_0" tl="J3" linkIndex="15" dir="l" state="o"/>
    <connection from="E1" to="-E3" fromLane="0" toLane="0" via=":J3_4_0" tl="J3" linkIndex="4" dir="r" state="o"/>
    <connection from="E1" to="-E0" fromLane="0" toLane="0" via=":J3_5_0" tl="J3" linkIndex="5" dir="s" state="o"/>
    <connection from="E1" to="-E0" fromLane="1" toLane="1" via=":J3_5_1" tl="J3" linkIndex="6" dir="s" state="o"/>
    <connection from="E1" to="-E2" fromLane="2" toLane="2" via=":J3_7_0" tl="J3" linkIndex="7" dir="l" state="o"/>
    <connection from="E2" to="-E1" fromLane="0" toLane="0" via=":J3_8_0" tl="J3" linkIndex="8" dir="r" state="O"/>
    <connection from="E2" to="-E3" fromLane="0" toLane="0" via=":J3_9_0" tl="J3" linkIndex="9" dir="s" state="O"/>
    <connection from="E2" to="-E3" fromLane="1" toLane="1" via=":J3_9_1" tl="J3" linkIndex="10" dir="s" state="O"/>
    <connection from="E2" to="-E0" fromLane="2" toLane="2" via=":J3_11_0" tl="J3" linkIndex="11" dir="l" state="o"/>
    <connection from="E3" to="-E0" fromLane="0" toLane="0" via=":J3_0_0" tl="J3" linkIndex="0" dir="r" state="O"/>
    <connection from="E3" to="-E2" fromLane="0" toLane="0" via=":J3_1_0" tl="J3" linkIndex="1" dir="s" state="O"/>
    <connection from="E3" to="-E2" fromLane="1" toLane="1" via=":J3_1_1" tl="J3" linkIndex="2" dir="s" state="O"/>
    <connection from="E3" to="-E1" fromLane="2" toLane="2" via=":J3_3_0" tl="J3" linkIndex="3" dir="l" state="o"/>

    <connection from=":J3_0" to="-E0" fromLane="0" toLane="0" dir="r" state="M"/>
    <connection from=":J3_1" to="-E2" fromLane="0" toLane="0" dir="s" state="M"/>
    <connection from=":J3_1" to="-E2" fromLane="1" toLane="1" dir="s" state="M"/>
    <connection from=":J3_3" to="-E1" fromLane="0" toLane="2" dir="l" state="M"/>
    <connection from=":J3_4" to="-E3" fromLane="0" toLane="0" dir="r" state="M"/>
    <connection from=":J3_5" to="-E0" fromLane="0" toLane="0" dir="s" state="M"/>
    <connection from=":J3_5" to="-E0" fromLane="1" toLane="1" dir="s" state="M"/>
    <connection from=":J3_7" to="-E2" fromLane="0" toLane="2" dir="l" state="M"/>
    <connection from=":J3_8" to="-E1" fromLane="0" toLane="0" dir="r" state="M"/>
    <connection from=":J3_9" to="-E3" fromLane="0" toLane="0" dir="s" state="M"/>
    <connection from=":J3_9" to="-E3" fromLane="1" toLane="1" dir="s" state="M"/>
    <connection from=":J3_11" to="-E0" fromLane="0" toLane="2" dir="l" state="M"/>
    <connection from=":J3_12" to="-E2" fromLane="0" toLane="0" dir="r" state="M"/>
    <connection from=":J3_13" to="-E1" fromLane="0" toLane="0" dir="s" state="M"/>
    <connection from=":J3_13" to="-E1" fromLane="1" toLane="1" dir="s" state="M"/>
    <connection from=":J3_15" to="-E3" fromLane="0" toLane="2" dir="l" state="M"/>

</net>
